>rk1_cyapa
--------------------------------------------EEQLYEPLEAIQLLKQ
ISTAKFIETVEVHCRLGIDPKYNDQQLRATVT----------------------------
------------------------KAGKLEFRNDRTGIVHVLFGKANFSEEALLGNLKAV
QEAVDRNRPSGVKGKYWKSIYITSTMSPSIEVDLPNGTGQTLRVAVITRGEKINE--AST
AG-ADLVGAEELIDEIQNGRLDFDCL-----IATPDMMPQVAKLGRVLGPRGLMPSPKGG
TVTFDLAQAINDF
>rl1_halvo
VDAVSRALDEAPGRNFRETVDLAVNLRDLDLNDPSKRVDESIVADETDFFVAEA-GLMQD
I--GRYLGTVLGPRGKMPTPLQPDDDVVETVNRM--------------------------
------------------------KNTVQLRSRDRRT-FHTRVGADDMTPDEIAENIDVI
VRRLEATLEKGPLN--IDSVYVKTTMGPSVEV-LPSGTGQDTQIVVFATGE--TA--AED
AA-DEVLGPDELEDFGDDTDAAKDL-----------------------------------
-------------
>rl1_metja
---VKEARELAKPRNFTQSFEFIATLKEIDMRKPENRIKTEVVAKAHDFFIAQA-DLMPL
I--GRYMGVILGPRGKMPKPVPANANIKPLVERL--------------------------
------------------------KKTVVINTRDKPY-FQVLVGNEKMTDEQIVDNIEAV
LNVVAKKYEKG--------------------L-LPHGRGKEAKIAVIGTGD--LAKQAEE
LG-LTVIRKEEIEELGKNKRKLRKI-YHIKDAYVKLTMGPAVKVK---------------
-------------
>rl1_sulso
-------------------------------------------AIQNEWFLINQ-ESMAL
A--GRILGPALGPRGKFPTPLPNTADISEYINRFDKESLIEALKLALSTEYNVKRNFTQS
VEIILTFKGIDMKKGDLKLREIVPKRSVIVKTKDQPQ-VQVFIGTEDMKPEDLAENAIAV
LNAIENK-AKV--------------------E-LPKQPSKAKRVLVVPSSE--QLEYAKK
ASPKVVITREELQKLQGQKRPVKKL-TNLRNIYVKTTMGKAVKVK---------------
-------------
